Version 4
SHEET 1 1448 680
WIRE 1152 16 1056 16
WIRE 1280 16 1232 16
WIRE 1056 96 1056 16
WIRE 720 128 720 96
WIRE 720 128 672 128
WIRE 880 128 848 128
WIRE 960 128 880 128
WIRE 1056 128 1056 96
WIRE 1056 128 1040 128
WIRE 1072 128 1056 128
WIRE 1280 144 1280 16
WIRE 1280 144 1136 144
WIRE 1312 144 1280 144
WIRE 1328 144 1312 144
WIRE 672 160 672 128
WIRE 720 160 720 128
WIRE 1072 160 1008 160
WIRE 1328 160 1328 144
WIRE 848 192 848 128
WIRE 1008 192 1008 160
WIRE 1328 272 1328 240
WIRE 1008 320 1008 272
FLAG 1008 320 0
FLAG 848 192 0
FLAG 1328 272 0
FLAG 672 160 0
FLAG 720 16 Vpp
FLAG 720 240 Vnn
FLAG 1312 144 o
FLAG 880 128 i
FLAG 1104 112 Vpp
FLAG 1104 176 Vnn
FLAG 1056 96 n
SYMBOL voltage 1008 176 R0
SYMATTR InstName Vi1
SYMATTR Value {Vi}
SYMBOL res 1056 112 R90
WINDOW 0 0 56 VBottom 2
WINDOW 3 32 56 VTop 2
SYMATTR InstName R3
SYMATTR Value {R1}
SYMBOL res 1248 0 R90
WINDOW 0 0 56 VBottom 2
WINDOW 3 32 56 VTop 2
SYMATTR InstName R4
SYMATTR Value {R2}
SYMBOL OpAmps\\UniversalOpAmp2 1104 144 R0
SYMATTR InstName U2
SYMATTR Value2 Avol=125 GBW=10Meg Slew=10Meg
SYMBOL voltage 720 0 R0
SYMATTR InstName Vs1
SYMATTR Value {Vs}
SYMBOL voltage 720 144 R0
SYMATTR InstName Vs2
SYMATTR Value {Vs}
SYMBOL res 1312 144 R0
SYMATTR InstName CARGA1
SYMATTR Value 100k
TEXT 816 400 Left 2 !.param Vs=15 Vi=2 R1=1.1k R2=3*R1
TEXT 816 464 Left 2 !.op
TEXT 816 432 Left 2 !.meas DC max Vo V(o)
