Version 4
SHEET 1 880 680
WIRE 112 -32 16 -32
WIRE 240 -32 192 -32
WIRE 16 48 16 -32
WIRE -320 80 -320 48
WIRE -320 80 -368 80
WIRE -160 80 -192 80
WIRE -80 80 -160 80
WIRE 16 80 16 48
WIRE 16 80 0 80
WIRE 32 80 16 80
WIRE 240 96 240 -32
WIRE 240 96 96 96
WIRE 272 96 240 96
WIRE 288 96 272 96
WIRE -368 112 -368 80
WIRE -320 112 -320 80
WIRE -32 112 -144 112
WIRE 32 112 -32 112
WIRE 288 112 288 96
WIRE -192 144 -192 80
WIRE -144 144 -144 112
WIRE -32 144 -32 112
WIRE 288 224 288 192
WIRE -144 240 -144 224
WIRE -32 240 -32 224
WIRE -144 368 -144 320
WIRE -32 368 -32 320
FLAG -32 368 0
FLAG -192 144 0
FLAG 288 224 0
FLAG -368 112 0
FLAG -320 -32 Vpp
FLAG -320 192 Vnn
FLAG 272 96 o
FLAG -160 80 i
FLAG 64 64 Vpp
FLAG 64 128 Vnn
FLAG 16 48 n
FLAG -144 368 0
SYMBOL voltage -32 224 R0
SYMATTR InstName Vi1
SYMATTR Value {Vi2}
SYMBOL res 16 64 R90
WINDOW 0 0 56 VBottom 2
WINDOW 3 32 56 VTop 2
SYMATTR InstName R1
SYMATTR Value {R1}
SYMBOL res 208 -48 R90
WINDOW 0 0 56 VBottom 2
WINDOW 3 32 56 VTop 2
SYMATTR InstName R2
SYMATTR Value {R2}
SYMBOL OpAmps\\UniversalOpAmp2 64 96 R0
SYMATTR InstName U1
SYMATTR Value2 Avol=125 GBW=10Meg Slew=10Meg
SYMBOL voltage -320 -48 R0
SYMATTR InstName Vs1
SYMATTR Value {Vs}
SYMBOL voltage -320 96 R0
SYMATTR InstName Vs2
SYMATTR Value {Vs}
SYMBOL res 272 96 R0
SYMATTR InstName CARGA1
SYMATTR Value 100k
SYMBOL res -48 128 R0
SYMATTR InstName R3
SYMATTR Value {R3}
SYMBOL voltage -144 224 R0
SYMATTR InstName Vi2
SYMATTR Value {Vi1}
SYMBOL res -160 128 R0
SYMATTR InstName R4
SYMATTR Value {R4}
TEXT -200 424 Left 2 !.param Vs=15 Vi1=1 Vi2=1 R1=1.1k R2=7*R1 R3=3*R1 R4=5*R1
TEXT -200 488 Left 2 !.op
TEXT -200 456 Left 2 !.meas DC max Vo V(o)
