Version 4
SHEET 1 1240 680
WIRE 176 -192 64 -192
WIRE 384 -176 240 -176
WIRE 512 -176 384 -176
WIRE 176 -160 160 -160
WIRE 384 -144 384 -176
WIRE 160 -128 160 -160
WIRE 512 -128 512 -176
WIRE 640 -128 512 -128
WIRE 752 -128 720 -128
WIRE 864 -128 752 -128
WIRE 992 -128 944 -128
WIRE 160 -48 160 -128
WIRE 384 -48 384 -64
WIRE 384 -48 160 -48
WIRE 64 -32 64 -192
WIRE -80 -16 -80 -48
WIRE -80 -16 -128 -16
WIRE 752 -16 752 -128
WIRE 784 -16 752 -16
WIRE 992 0 992 -128
WIRE 992 0 848 0
WIRE 1024 0 992 0
WIRE 1040 0 1024 0
WIRE -128 16 -128 -16
WIRE -80 16 -80 -16
WIRE 528 16 512 16
WIRE 720 16 608 16
WIRE 784 16 720 16
WIRE 1040 16 1040 0
WIRE 384 32 160 32
WIRE 720 48 720 16
WIRE 384 64 384 32
WIRE 160 112 160 32
WIRE 1040 128 1040 96
WIRE 160 144 160 112
WIRE 176 144 160 144
WIRE 384 160 384 144
WIRE 384 160 240 160
WIRE 512 160 512 16
WIRE 512 160 384 160
WIRE 720 160 720 128
WIRE 64 176 64 48
WIRE 176 176 64 176
FLAG -128 16 0
FLAG -80 -128 Vpp
FLAG -80 96 Vnn
FLAG 208 128 Vpp
FLAG 208 192 Vnn
FLAG 160 112 n
FLAG 1040 128 0
FLAG 1024 0 o
FLAG 816 -32 Vpp
FLAG 816 32 Vnn
FLAG 720 160 0
FLAG 208 -144 Vpp
FLAG 208 -208 Vnn
FLAG 160 -128 n
SYMBOL voltage 64 -48 R0
SYMATTR InstName Vi1
SYMATTR Value {Vi}
SYMBOL OpAmps\\UniversalOpAmp2 208 160 R0
SYMATTR InstName U1
SYMATTR Value2 Avol=125 GBW=10Meg Slew=10Meg
SYMBOL voltage -80 -144 R0
SYMATTR InstName Vs1
SYMATTR Value {Vs}
SYMBOL voltage -80 0 R0
SYMATTR InstName Vs2
SYMATTR Value {Vs}
SYMBOL res 960 -144 R90
WINDOW 0 0 56 VBottom 2
WINDOW 3 32 56 VTop 2
SYMATTR InstName R1
SYMATTR Value 1k
SYMBOL OpAmps\\UniversalOpAmp2 816 0 R0
SYMATTR InstName U2
SYMATTR Value2 Avol=125 GBW=10Meg Slew=10Meg
SYMBOL res 1024 0 R0
SYMATTR InstName CARGA2
SYMATTR Value 100k
SYMBOL res 624 0 R90
WINDOW 0 0 56 VBottom 2
WINDOW 3 32 56 VTop 2
SYMATTR InstName R2
SYMATTR Value 1k
SYMBOL res 704 32 R0
SYMATTR InstName R4
SYMATTR Value 1k
SYMBOL res 736 -144 R90
WINDOW 0 0 56 VBottom 2
WINDOW 3 32 56 VTop 2
SYMATTR InstName R5
SYMATTR Value 1k
SYMBOL OpAmps\\UniversalOpAmp2 208 -176 M180
SYMATTR InstName U3
SYMATTR Value2 Avol=125 GBW=10Meg Slew=10Meg
SYMBOL res 368 -48 M180
WINDOW 0 36 76 Left 2
WINDOW 3 36 40 Left 2
SYMATTR InstName R3
SYMATTR Value 25k
SYMBOL res 368 48 R0
SYMATTR InstName R6
SYMATTR Value 25k
SYMBOL res 368 -64 R0
SYMATTR InstName R7
SYMATTR Value {R}
TEXT 344 208 Left 2 !.param Vs=100 Vi=2 R=10k
TEXT 344 272 Left 2 !.op
TEXT 344 240 Left 2 !.meas DC max Vo V(o)
