Version 4
SHEET 1 880 680
WIRE 304 0 208 0
WIRE 432 0 384 0
WIRE 208 80 208 0
WIRE -176 112 -176 80
WIRE -176 112 -224 112
WIRE 112 112 -64 112
WIRE 208 112 208 80
WIRE 208 112 192 112
WIRE 224 112 208 112
WIRE 432 128 432 0
WIRE 432 128 288 128
WIRE 464 128 432 128
WIRE 480 128 464 128
WIRE -224 144 -224 112
WIRE -176 144 -176 112
WIRE -64 144 -64 112
WIRE 224 144 192 144
WIRE 480 144 480 128
WIRE 192 160 192 144
WIRE -64 256 -64 224
WIRE 192 256 192 240
WIRE 480 256 480 224
FLAG -64 256 0
FLAG 480 256 0
FLAG -224 144 0
FLAG -176 0 Vpp
FLAG -176 224 Vnn
FLAG 464 128 o
FLAG 256 96 Vpp
FLAG 256 160 Vnn
FLAG 208 80 n
FLAG 192 256 0
SYMBOL voltage -64 128 R0
SYMATTR InstName Vi1
SYMATTR Value SINE(0 {Vi} {fi})
SYMBOL res 208 96 R90
WINDOW 0 0 56 VBottom 2
WINDOW 3 32 56 VTop 2
SYMATTR InstName R1
SYMATTR Value {3*R}
SYMBOL res 400 -16 R90
WINDOW 0 0 56 VBottom 2
WINDOW 3 32 56 VTop 2
SYMATTR InstName R2
SYMATTR Value {6*R}
SYMBOL OpAmps\\UniversalOpAmp2 256 128 R0
SYMATTR InstName U1
SYMATTR Value2 Avol=125 GBW=10Meg Slew=10Meg
SYMBOL voltage -176 -16 R0
SYMATTR InstName Vs1
SYMATTR Value {Vs}
SYMBOL voltage -176 128 R0
SYMATTR InstName Vs2
SYMATTR Value {Vs}
SYMBOL res 464 128 R0
SYMATTR InstName CARGA1
SYMATTR Value 100k
SYMBOL res 176 144 R0
SYMATTR InstName R3
SYMATTR Value {2*R}
TEXT -96 352 Left 2 !.param Vs=20 Vi=2 fi=200 R=1k
TEXT -96 304 Left 2 !.ac dec 100 10 1G
TEXT -96 328 Left 2 ;.tran 0 0.01 0.0001
